dss/import/13n/XfmrCode_Caso_Base.dss
New "XfmrCode.SubstationTyp3ph" phases=3 windings=2 XHL=8 conns=[delta, wye] kVs=[115.0, 4.16] kVAs=[5000.0, 5000.0] %Rs=[0.5, 0.5] XHT=4.0 XLT=4.0 MaxTap=1.1 MinTap=0.9 
New "XfmrCode.XFM_1Typ" phases=3 windings=2 XHL=2 conns=[wye, wye] kVs=[4.16, 0.48] kVAs=[500.0, 500.0] %Rs=[0.55, 0.55] XHT=1.0 XLT=1.0 MaxTap=1.0 MinTap=1.0 
New "XfmrCode.AutoTRF1ph" phases=1 windings=2 XHL=0 conns=[delta, delta] kVs=[2.401777, 2.401777] kVAs=[1667.0, 1667.0] MaxTap=1.1 MinTap=0.9 
